<?xml version="1.0" encoding="UTF-8"?>

<!-- generated on 23/04/18 17:00:29 by Netedit Version 0.32.0
<?xml version="1.0" encoding="UTF-8"?>

<configuration xmlns:xsi="http://www.w3.org/2001/XMLSchema-instance" xsi:noNamespaceSchemaLocation="http://sumo.dlr.de/xsd/netconvertConfiguration.xsd">

    <input>
        <sumo-net-file value="D:\Google%20Drive\ThirdYear_UNI\Project_EffDetourCompScheme\SumoRoutes\TestingEVRouting\FiveByFiveKmSquares\ElectricVehNetwRout.net.xml"/>
    </input>

    <output>
        <output-file value="D:\Google%20Drive\ThirdYear_UNI\Project_EffDetourCompScheme\SumoRoutes\TestingEVRouting\FiveByFiveKmSquares\ElectricVehNetwRout.net.xml"/>
    </output>

    <processing>
        <no-turnarounds value="true"/>
        <offset.disable-normalization value="true"/>
        <lefthand value="false"/>
        <junctions.corner-detail value="0"/>
        <rectangular-lane-cut value="false"/>
        <walkingareas value="false"/>
    </processing>

</configuration>
-->

<net version="0.27" xmlns:xsi="http://www.w3.org/2001/XMLSchema-instance" xsi:noNamespaceSchemaLocation="http://sumo.dlr.de/xsd/net_file.xsd">

    <location netOffset="0.00,0.00" convBoundary="-500.00,-400.00,200.00,300.00" origBoundary="-10000000000.00,-10000000000.00,10000000000.00,10000000000.00" projParameter="!"/>

    <edge id=":gneJ141_0" function="internal">
        <lane id=":gneJ141_0_0" index="0" speed="13.89" length="8.06" shape="-391.95,204.95 -394.36,204.81 -396.14,204.70 -397.70,205.09 -399.48,206.48"/>
    </edge>
    <edge id=":gneJ141_1" function="internal">
        <lane id=":gneJ141_1_0" index="0" speed="13.89" length="10.39" shape="-391.95,201.65 -395.33,201.81 -398.10,202.27 -400.26,203.05 -401.81,204.15"/>
    </edge>
    <edge id=":gneJ141_2" function="internal">
        <lane id=":gneJ141_2_0" index="0" speed="13.89" length="5.48" shape="-391.95,201.65 -396.19,201.04 -397.21,200.43"/>
    </edge>
    <edge id=":gneJ141_9" function="internal">
        <lane id=":gneJ141_9_0" index="0" speed="13.89" length="10.17" shape="-397.21,200.43 -399.23,199.23 -401.04,196.19 -401.65,191.95"/>
    </edge>
    <edge id=":gneJ141_3" function="internal">
        <lane id=":gneJ141_3_0" index="0" speed="13.89" length="5.00" shape="-395.05,191.95 -394.86,193.31 -394.27,194.28 -393.31,194.86 -391.95,195.05"/>
    </edge>
    <edge id=":gneJ141_4" function="internal">
        <lane id=":gneJ141_4_0" index="0" speed="13.89" length="15.55" shape="-395.05,191.95 -395.33,196.65 -396.16,200.63 -397.54,203.91 -399.48,206.48"/>
    </edge>
    <edge id=":gneJ141_5" function="internal">
        <lane id=":gneJ141_5_0" index="0" speed="13.89" length="12.97" shape="-398.35,191.95 -398.57,195.99 -399.22,199.37 -400.30,202.09 -401.81,204.15"/>
    </edge>
    <edge id=":gneJ141_6" function="internal">
        <lane id=":gneJ141_6_0" index="0" speed="13.89" length="8.06" shape="-406.48,199.48 -405.09,197.70 -404.70,196.14 -404.81,194.36 -404.95,191.95"/>
    </edge>
    <edge id=":gneJ141_7" function="internal">
        <lane id=":gneJ141_7_0" index="0" speed="13.89" length="10.39" shape="-404.15,201.81 -403.05,200.26 -402.27,198.10 -401.81,195.33 -401.65,191.95"/>
    </edge>
    <edge id=":gneJ141_8" function="internal">
        <lane id=":gneJ141_8_0" index="0" speed="13.89" length="12.97" shape="-404.15,201.81 -402.09,200.30 -399.37,199.22 -395.99,198.57 -391.95,198.35"/>
    </edge>
    <edge id=":gneJ142_0" function="internal">
        <lane id=":gneJ142_0_0" index="0" speed="13.89" length="16.10" shape="-291.95,204.95 -308.05,204.95"/>
        <lane id=":gneJ142_0_1" index="1" speed="13.89" length="16.10" shape="-291.95,201.65 -308.05,201.65"/>
    </edge>
    <edge id=":gneJ142_2" function="internal">
        <lane id=":gneJ142_2_0" index="0" speed="13.89" length="6.41" shape="-291.95,201.65 -296.19,201.04 -298.02,199.95"/>
    </edge>
    <edge id=":gneJ142_9" function="internal">
        <lane id=":gneJ142_9_0" index="0" speed="13.89" length="9.23" shape="-298.02,199.95 -299.22,199.23 -301.04,196.19 -301.65,191.95"/>
    </edge>
    <edge id=":gneJ142_3" function="internal">
        <lane id=":gneJ142_3_0" index="0" speed="13.89" length="5.00" shape="-295.05,191.95 -294.86,193.31 -294.27,194.28 -293.31,194.86 -291.95,195.05"/>
    </edge>
    <edge id=":gneJ142_4" function="internal">
        <lane id=":gneJ142_4_0" index="0" speed="13.89" length="10.32" shape="-298.35,191.95 -297.95,194.75 -296.75,196.75 -294.75,197.95 -291.95,198.35"/>
    </edge>
    <edge id=":gneJ142_5" function="internal">
        <lane id=":gneJ142_5_0" index="0" speed="13.89" length="15.64" shape="-298.35,191.95 -298.96,196.19 -300.78,199.23 -303.81,201.04 -308.05,201.65"/>
    </edge>
    <edge id=":gneJ142_6" function="internal">
        <lane id=":gneJ142_6_0" index="0" speed="13.89" length="5.00" shape="-308.05,195.05 -306.69,194.86 -305.73,194.28 -305.14,193.31 -304.95,191.95"/>
    </edge>
    <edge id=":gneJ142_7" function="internal">
        <lane id=":gneJ142_7_0" index="0" speed="13.89" length="16.10" shape="-308.05,195.05 -291.95,195.05"/>
        <lane id=":gneJ142_7_1" index="1" speed="13.89" length="16.10" shape="-308.05,198.35 -291.95,198.35"/>
    </edge>
    <edge id=":gneJ143_0" function="internal">
        <lane id=":gneJ143_0_0" index="0" speed="13.89" length="16.10" shape="-191.95,204.95 -208.05,204.95"/>
        <lane id=":gneJ143_0_1" index="1" speed="13.89" length="16.10" shape="-191.95,201.65 -208.05,201.65"/>
    </edge>
    <edge id=":gneJ143_2" function="internal">
        <lane id=":gneJ143_2_0" index="0" speed="13.89" length="6.41" shape="-191.95,201.65 -196.19,201.04 -198.02,199.95"/>
    </edge>
    <edge id=":gneJ143_9" function="internal">
        <lane id=":gneJ143_9_0" index="0" speed="13.89" length="9.23" shape="-198.02,199.95 -199.23,199.23 -201.04,196.19 -201.65,191.95"/>
    </edge>
    <edge id=":gneJ143_3" function="internal">
        <lane id=":gneJ143_3_0" index="0" speed="13.89" length="5.00" shape="-195.05,191.95 -194.86,193.31 -194.28,194.28 -193.31,194.86 -191.95,195.05"/>
    </edge>
    <edge id=":gneJ143_4" function="internal">
        <lane id=":gneJ143_4_0" index="0" speed="13.89" length="10.32" shape="-198.35,191.95 -197.95,194.75 -196.75,196.75 -194.75,197.95 -191.95,198.35"/>
    </edge>
    <edge id=":gneJ143_5" function="internal">
        <lane id=":gneJ143_5_0" index="0" speed="13.89" length="15.64" shape="-198.35,191.95 -198.96,196.19 -200.77,199.22 -203.81,201.04 -208.05,201.65"/>
    </edge>
    <edge id=":gneJ143_6" function="internal">
        <lane id=":gneJ143_6_0" index="0" speed="13.89" length="5.00" shape="-208.05,195.05 -206.69,194.86 -205.72,194.28 -205.14,193.31 -204.95,191.95"/>
    </edge>
    <edge id=":gneJ143_7" function="internal">
        <lane id=":gneJ143_7_0" index="0" speed="13.89" length="16.10" shape="-208.05,195.05 -191.95,195.05"/>
        <lane id=":gneJ143_7_1" index="1" speed="13.89" length="16.10" shape="-208.05,198.35 -191.95,198.35"/>
    </edge>
    <edge id=":gneJ144_0" function="internal">
        <lane id=":gneJ144_0_0" index="0" speed="13.89" length="16.10" shape="-91.95,204.95 -108.05,204.95"/>
        <lane id=":gneJ144_0_1" index="1" speed="13.89" length="16.10" shape="-91.95,201.65 -108.05,201.65"/>
    </edge>
    <edge id=":gneJ144_2" function="internal">
        <lane id=":gneJ144_2_0" index="0" speed="13.89" length="6.41" shape="-91.95,201.65 -96.19,201.04 -98.02,199.95"/>
    </edge>
    <edge id=":gneJ144_9" function="internal">
        <lane id=":gneJ144_9_0" index="0" speed="13.89" length="9.23" shape="-98.02,199.95 -99.22,199.23 -101.04,196.19 -101.65,191.95"/>
    </edge>
    <edge id=":gneJ144_3" function="internal">
        <lane id=":gneJ144_3_0" index="0" speed="13.89" length="5.00" shape="-95.05,191.95 -94.86,193.31 -94.27,194.28 -93.31,194.86 -91.95,195.05"/>
    </edge>
    <edge id=":gneJ144_4" function="internal">
        <lane id=":gneJ144_4_0" index="0" speed="13.89" length="10.32" shape="-98.35,191.95 -97.95,194.75 -96.75,196.75 -94.75,197.95 -91.95,198.35"/>
    </edge>
    <edge id=":gneJ144_5" function="internal">
        <lane id=":gneJ144_5_0" index="0" speed="13.89" length="15.64" shape="-98.35,191.95 -98.96,196.19 -100.77,199.23 -103.81,201.04 -108.05,201.65"/>
    </edge>
    <edge id=":gneJ144_6" function="internal">
        <lane id=":gneJ144_6_0" index="0" speed="13.89" length="5.00" shape="-108.05,195.05 -106.69,194.86 -105.72,194.28 -105.14,193.31 -104.95,191.95"/>
    </edge>
    <edge id=":gneJ144_7" function="internal">
        <lane id=":gneJ144_7_0" index="0" speed="13.89" length="16.10" shape="-108.05,195.05 -91.95,195.05"/>
        <lane id=":gneJ144_7_1" index="1" speed="13.89" length="16.10" shape="-108.05,198.35 -91.95,198.35"/>
    </edge>
    <edge id=":gneJ145_0" function="internal">
        <lane id=":gneJ145_0_0" index="0" speed="13.89" length="16.10" shape="8.05,204.95 -8.05,204.95"/>
        <lane id=":gneJ145_0_1" index="1" speed="13.89" length="16.10" shape="8.05,201.65 -8.05,201.65"/>
    </edge>
    <edge id=":gneJ145_2" function="internal">
        <lane id=":gneJ145_2_0" index="0" speed="13.89" length="6.41" shape="8.05,201.65 3.81,201.04 1.98,199.95"/>
    </edge>
    <edge id=":gneJ145_9" function="internal">
        <lane id=":gneJ145_9_0" index="0" speed="13.89" length="9.23" shape="1.98,199.95 0.77,199.23 -1.04,196.19 -1.65,191.95"/>
    </edge>
    <edge id=":gneJ145_3" function="internal">
        <lane id=":gneJ145_3_0" index="0" speed="13.89" length="5.00" shape="4.95,191.95 5.14,193.31 5.72,194.28 6.69,194.86 8.05,195.05"/>
    </edge>
    <edge id=":gneJ145_4" function="internal">
        <lane id=":gneJ145_4_0" index="0" speed="13.89" length="10.32" shape="1.65,191.95 2.05,194.75 3.25,196.75 5.25,197.95 8.05,198.35"/>
    </edge>
    <edge id=":gneJ145_5" function="internal">
        <lane id=":gneJ145_5_0" index="0" speed="13.89" length="15.64" shape="1.65,191.95 1.04,196.19 -0.77,199.22 -3.81,201.04 -8.05,201.65"/>
    </edge>
    <edge id=":gneJ145_6" function="internal">
        <lane id=":gneJ145_6_0" index="0" speed="13.89" length="5.00" shape="-8.05,195.05 -6.69,194.86 -5.73,194.28 -5.14,193.31 -4.95,191.95"/>
    </edge>
    <edge id=":gneJ145_7" function="internal">
        <lane id=":gneJ145_7_0" index="0" speed="13.89" length="16.10" shape="-8.05,195.05 8.05,195.05"/>
        <lane id=":gneJ145_7_1" index="1" speed="13.89" length="16.10" shape="-8.05,198.35 8.05,198.35"/>
    </edge>
    <edge id=":gneJ146_0" function="internal">
        <lane id=":gneJ146_0_0" index="0" speed="13.89" length="8.06" shape="99.48,206.48 97.70,205.09 96.14,204.70 94.36,204.81 91.95,204.95"/>
    </edge>
    <edge id=":gneJ146_1" function="internal">
        <lane id=":gneJ146_1_0" index="0" speed="13.89" length="10.39" shape="101.81,204.15 100.26,203.05 98.10,202.27 95.33,201.81 91.95,201.65"/>
    </edge>
    <edge id=":gneJ146_2" function="internal">
        <lane id=":gneJ146_2_0" index="0" speed="13.89" length="12.97" shape="101.81,204.15 100.30,202.09 99.22,199.37 98.57,195.99 98.35,191.95"/>
    </edge>
    <edge id=":gneJ146_3" function="internal">
        <lane id=":gneJ146_3_0" index="0" speed="13.89" length="8.06" shape="104.95,191.95 104.81,194.36 104.70,196.14 105.09,197.70 106.48,199.48"/>
    </edge>
    <edge id=":gneJ146_4" function="internal">
        <lane id=":gneJ146_4_0" index="0" speed="13.89" length="10.66" shape="101.65,191.95 101.53,195.13 101.55,197.44 102.24,199.47 104.15,201.81"/>
    </edge>
    <edge id=":gneJ146_5" function="internal">
        <lane id=":gneJ146_5_0" index="0" speed="13.89" length="5.48" shape="101.65,191.95 101.04,196.19 100.43,197.21"/>
    </edge>
    <edge id=":gneJ146_8" function="internal">
        <lane id=":gneJ146_8_0" index="0" speed="13.89" length="10.17" shape="100.43,197.21 99.23,199.22 96.19,201.04 91.95,201.65"/>
    </edge>
    <edge id=":gneJ146_6" function="internal">
        <lane id=":gneJ146_6_0" index="0" speed="13.89" length="5.00" shape="91.95,195.05 93.31,194.86 94.27,194.28 94.86,193.31 95.05,191.95"/>
    </edge>
    <edge id=":gneJ146_7" function="internal">
        <lane id=":gneJ146_7_0" index="0" speed="13.89" length="12.97" shape="91.95,198.35 95.99,198.57 99.37,199.22 102.09,200.30 104.15,201.81"/>
    </edge>
    <edge id=":gneJ147_0" function="internal">
        <lane id=":gneJ147_0_0" index="0" speed="13.89" length="5.00" shape="95.05,108.05 94.86,106.69 94.27,105.73 93.31,105.14 91.95,104.95"/>
    </edge>
    <edge id=":gneJ147_1" function="internal">
        <lane id=":gneJ147_1_0" index="0" speed="13.89" length="16.10" shape="95.05,108.05 95.05,91.95"/>
        <lane id=":gneJ147_1_1" index="1" speed="13.89" length="16.10" shape="98.35,108.05 98.35,91.95"/>
    </edge>
    <edge id=":gneJ147_3" function="internal">
        <lane id=":gneJ147_3_0" index="0" speed="13.89" length="16.10" shape="104.95,91.95 104.95,108.05"/>
        <lane id=":gneJ147_3_1" index="1" speed="13.89" length="16.10" shape="101.65,91.95 101.65,108.05"/>
    </edge>
    <edge id=":gneJ147_5" function="internal">
        <lane id=":gneJ147_5_0" index="0" speed="13.89" length="6.41" shape="101.65,91.95 101.04,96.19 99.95,98.02"/>
    </edge>
    <edge id=":gneJ147_9" function="internal">
        <lane id=":gneJ147_9_0" index="0" speed="13.89" length="9.23" shape="99.95,98.02 99.23,99.22 96.19,101.04 91.95,101.65"/>
    </edge>
    <edge id=":gneJ147_6" function="internal">
        <lane id=":gneJ147_6_0" index="0" speed="13.89" length="5.00" shape="91.95,95.05 93.31,94.86 94.28,94.27 94.86,93.31 95.05,91.95"/>
    </edge>
    <edge id=":gneJ147_7" function="internal">
        <lane id=":gneJ147_7_0" index="0" speed="13.89" length="10.32" shape="91.95,98.35 94.75,97.95 96.75,96.75 97.95,94.75 98.35,91.95"/>
    </edge>
    <edge id=":gneJ147_8" function="internal">
        <lane id=":gneJ147_8_0" index="0" speed="13.89" length="15.64" shape="91.95,98.35 96.19,98.96 99.22,100.77 101.04,103.81 101.65,108.05"/>
    </edge>
    <edge id=":gneJ148_0" function="internal">
        <lane id=":gneJ148_0_0" index="0" speed="13.89" length="5.00" shape="95.05,8.05 94.86,6.69 94.27,5.73 93.31,5.14 91.95,4.95"/>
    </edge>
    <edge id=":gneJ148_1" function="internal">
        <lane id=":gneJ148_1_0" index="0" speed="13.89" length="16.10" shape="95.05,8.05 95.05,-8.05"/>
        <lane id=":gneJ148_1_1" index="1" speed="13.89" length="16.10" shape="98.35,8.05 98.35,-8.05"/>
    </edge>
    <edge id=":gneJ148_3" function="internal">
        <lane id=":gneJ148_3_0" index="0" speed="13.89" length="16.10" shape="104.95,-8.05 104.95,8.05"/>
        <lane id=":gneJ148_3_1" index="1" speed="13.89" length="16.10" shape="101.65,-8.05 101.65,8.05"/>
    </edge>
    <edge id=":gneJ148_5" function="internal">
        <lane id=":gneJ148_5_0" index="0" speed="13.89" length="6.41" shape="101.65,-8.05 101.04,-3.81 99.95,-1.98"/>
    </edge>
    <edge id=":gneJ148_9" function="internal">
        <lane id=":gneJ148_9_0" index="0" speed="13.89" length="9.23" shape="99.95,-1.98 99.23,-0.77 96.19,1.04 91.95,1.65"/>
    </edge>
    <edge id=":gneJ148_6" function="internal">
        <lane id=":gneJ148_6_0" index="0" speed="13.89" length="5.00" shape="91.95,-4.95 93.31,-5.14 94.28,-5.72 94.86,-6.69 95.05,-8.05"/>
    </edge>
    <edge id=":gneJ148_7" function="internal">
        <lane id=":gneJ148_7_0" index="0" speed="13.89" length="10.32" shape="91.95,-1.65 94.75,-2.05 96.75,-3.25 97.95,-5.25 98.35,-8.05"/>
    </edge>
    <edge id=":gneJ148_8" function="internal">
        <lane id=":gneJ148_8_0" index="0" speed="13.89" length="15.64" shape="91.95,-1.65 96.19,-1.04 99.22,0.77 101.04,3.81 101.65,8.05"/>
    </edge>
    <edge id=":gneJ152_0" function="internal">
        <lane id=":gneJ152_0_0" index="0" speed="13.89" length="5.00" shape="-4.95,-291.95 -5.14,-293.31 -5.72,-294.27 -6.69,-294.86 -8.05,-295.05"/>
    </edge>
    <edge id=":gneJ152_1" function="internal">
        <lane id=":gneJ152_1_0" index="0" speed="13.89" length="10.32" shape="-1.65,-291.95 -2.05,-294.75 -3.25,-296.75 -5.25,-297.95 -8.05,-298.35"/>
    </edge>
    <edge id=":gneJ152_2" function="internal">
        <lane id=":gneJ152_2_0" index="0" speed="13.89" length="15.64" shape="-1.65,-291.95 -1.04,-296.19 0.77,-299.22 3.81,-301.04 8.05,-301.65"/>
    </edge>
    <edge id=":gneJ152_3" function="internal">
        <lane id=":gneJ152_3_0" index="0" speed="13.89" length="5.00" shape="8.05,-295.05 6.69,-294.86 5.73,-294.27 5.14,-293.31 4.95,-291.95"/>
    </edge>
    <edge id=":gneJ152_4" function="internal">
        <lane id=":gneJ152_4_0" index="0" speed="13.89" length="16.10" shape="8.05,-295.05 -8.05,-295.05"/>
        <lane id=":gneJ152_4_1" index="1" speed="13.89" length="16.10" shape="8.05,-298.35 -8.05,-298.35"/>
    </edge>
    <edge id=":gneJ152_6" function="internal">
        <lane id=":gneJ152_6_0" index="0" speed="13.89" length="16.10" shape="-8.05,-304.95 8.05,-304.95"/>
        <lane id=":gneJ152_6_1" index="1" speed="13.89" length="16.10" shape="-8.05,-301.65 8.05,-301.65"/>
    </edge>
    <edge id=":gneJ152_8" function="internal">
        <lane id=":gneJ152_8_0" index="0" speed="13.89" length="6.41" shape="-8.05,-301.65 -3.81,-301.04 -1.98,-299.95"/>
    </edge>
    <edge id=":gneJ152_9" function="internal">
        <lane id=":gneJ152_9_0" index="0" speed="13.89" length="9.23" shape="-1.98,-299.95 -0.77,-299.22 1.04,-296.19 1.65,-291.95"/>
    </edge>
    <edge id=":gneJ154_0" function="internal">
        <lane id=":gneJ154_0_0" index="0" speed="13.89" length="5.00" shape="-204.95,-291.95 -205.14,-293.31 -205.72,-294.27 -206.69,-294.86 -208.05,-295.05"/>
    </edge>
    <edge id=":gneJ154_1" function="internal">
        <lane id=":gneJ154_1_0" index="0" speed="13.89" length="10.32" shape="-201.65,-291.95 -202.05,-294.75 -203.25,-296.75 -205.25,-297.95 -208.05,-298.35"/>
    </edge>
    <edge id=":gneJ154_2" function="internal">
        <lane id=":gneJ154_2_0" index="0" speed="13.89" length="15.64" shape="-201.65,-291.95 -201.04,-296.19 -199.23,-299.22 -196.19,-301.04 -191.95,-301.65"/>
    </edge>
    <edge id=":gneJ154_3" function="internal">
        <lane id=":gneJ154_3_0" index="0" speed="13.89" length="5.00" shape="-191.95,-295.05 -193.31,-294.86 -194.28,-294.27 -194.86,-293.31 -195.05,-291.95"/>
    </edge>
    <edge id=":gneJ154_4" function="internal">
        <lane id=":gneJ154_4_0" index="0" speed="13.89" length="16.10" shape="-191.95,-295.05 -208.05,-295.05"/>
        <lane id=":gneJ154_4_1" index="1" speed="13.89" length="16.10" shape="-191.95,-298.35 -208.05,-298.35"/>
    </edge>
    <edge id=":gneJ154_6" function="internal">
        <lane id=":gneJ154_6_0" index="0" speed="13.89" length="16.10" shape="-208.05,-304.95 -191.95,-304.95"/>
        <lane id=":gneJ154_6_1" index="1" speed="13.89" length="16.10" shape="-208.05,-301.65 -191.95,-301.65"/>
    </edge>
    <edge id=":gneJ154_8" function="internal">
        <lane id=":gneJ154_8_0" index="0" speed="13.89" length="6.41" shape="-208.05,-301.65 -203.81,-301.04 -201.98,-299.95"/>
    </edge>
    <edge id=":gneJ154_9" function="internal">
        <lane id=":gneJ154_9_0" index="0" speed="13.89" length="9.23" shape="-201.98,-299.95 -200.78,-299.22 -198.96,-296.19 -198.35,-291.95"/>
    </edge>
    <edge id=":gneJ155_0" function="internal">
        <lane id=":gneJ155_0_0" index="0" speed="13.89" length="5.00" shape="-304.95,-291.95 -305.14,-293.31 -305.73,-294.27 -306.69,-294.86 -308.05,-295.05"/>
    </edge>
    <edge id=":gneJ155_1" function="internal">
        <lane id=":gneJ155_1_0" index="0" speed="13.89" length="10.32" shape="-301.65,-291.95 -302.05,-294.75 -303.25,-296.75 -305.25,-297.95 -308.05,-298.35"/>
    </edge>
    <edge id=":gneJ155_2" function="internal">
        <lane id=":gneJ155_2_0" index="0" speed="13.89" length="15.64" shape="-301.65,-291.95 -301.04,-296.19 -299.22,-299.22 -296.19,-301.04 -291.95,-301.65"/>
    </edge>
    <edge id=":gneJ155_3" function="internal">
        <lane id=":gneJ155_3_0" index="0" speed="13.89" length="5.00" shape="-291.95,-295.05 -293.31,-294.86 -294.27,-294.27 -294.86,-293.31 -295.05,-291.95"/>
    </edge>
    <edge id=":gneJ155_4" function="internal">
        <lane id=":gneJ155_4_0" index="0" speed="13.89" length="16.10" shape="-291.95,-295.05 -308.05,-295.05"/>
        <lane id=":gneJ155_4_1" index="1" speed="13.89" length="16.10" shape="-291.95,-298.35 -308.05,-298.35"/>
    </edge>
    <edge id=":gneJ155_6" function="internal">
        <lane id=":gneJ155_6_0" index="0" speed="13.89" length="16.10" shape="-308.05,-304.95 -291.95,-304.95"/>
        <lane id=":gneJ155_6_1" index="1" speed="13.89" length="16.10" shape="-308.05,-301.65 -291.95,-301.65"/>
    </edge>
    <edge id=":gneJ155_8" function="internal">
        <lane id=":gneJ155_8_0" index="0" speed="13.89" length="6.41" shape="-308.05,-301.65 -303.81,-301.04 -301.98,-299.95"/>
    </edge>
    <edge id=":gneJ155_9" function="internal">
        <lane id=":gneJ155_9_0" index="0" speed="13.89" length="9.23" shape="-301.98,-299.95 -300.78,-299.22 -298.96,-296.19 -298.35,-291.95"/>
    </edge>
    <edge id=":gneJ156_0" function="internal">
        <lane id=":gneJ156_0_0" index="0" speed="13.89" length="7.82" shape="-404.95,-291.95 -405.05,-294.67 -405.33,-296.83 -405.81,-298.43 -406.48,-299.48"/>
    </edge>
    <edge id=":gneJ156_1" function="internal">
        <lane id=":gneJ156_1_0" index="0" speed="13.89" length="10.39" shape="-401.65,-291.95 -401.81,-295.33 -402.27,-298.10 -403.05,-300.26 -404.15,-301.81"/>
    </edge>
    <edge id=":gneJ156_2" function="internal">
        <lane id=":gneJ156_2_0" index="0" speed="13.89" length="5.48" shape="-401.65,-291.95 -401.04,-296.19 -400.43,-297.21"/>
    </edge>
    <edge id=":gneJ156_9" function="internal">
        <lane id=":gneJ156_9_0" index="0" speed="13.89" length="10.17" shape="-400.43,-297.21 -399.22,-299.22 -396.19,-301.04 -391.95,-301.65"/>
    </edge>
    <edge id=":gneJ156_3" function="internal">
        <lane id=":gneJ156_3_0" index="0" speed="13.89" length="5.00" shape="-391.95,-295.05 -393.31,-294.86 -394.27,-294.27 -394.86,-293.31 -395.05,-291.95"/>
    </edge>
    <edge id=":gneJ156_4" function="internal">
        <lane id=":gneJ156_4_0" index="0" speed="13.89" length="15.55" shape="-391.95,-295.05 -396.65,-295.33 -400.63,-296.16 -403.91,-297.54 -406.48,-299.48"/>
    </edge>
    <edge id=":gneJ156_5" function="internal">
        <lane id=":gneJ156_5_0" index="0" speed="13.89" length="12.97" shape="-391.95,-298.35 -395.99,-298.57 -399.37,-299.22 -402.09,-300.30 -404.15,-301.81"/>
    </edge>
    <edge id=":gneJ156_6" function="internal">
        <lane id=":gneJ156_6_0" index="0" speed="13.89" length="7.82" shape="-399.48,-306.48 -398.43,-305.81 -396.83,-305.33 -394.67,-305.05 -391.95,-304.95"/>
    </edge>
    <edge id=":gneJ156_7" function="internal">
        <lane id=":gneJ156_7_0" index="0" speed="13.89" length="10.39" shape="-401.81,-304.15 -400.26,-303.05 -398.10,-302.27 -395.33,-301.81 -391.95,-301.65"/>
    </edge>
    <edge id=":gneJ156_8" function="internal">
        <lane id=":gneJ156_8_0" index="0" speed="13.89" length="12.97" shape="-401.81,-304.15 -400.30,-302.09 -399.22,-299.37 -398.57,-295.99 -398.35,-291.95"/>
    </edge>
    <edge id=":gneJ157_0" function="internal">
        <lane id=":gneJ157_0_0" index="0" speed="13.89" length="16.10" shape="-404.95,-191.95 -404.95,-208.05"/>
        <lane id=":gneJ157_0_1" index="1" speed="13.89" length="16.10" shape="-401.65,-191.95 -401.65,-208.05"/>
    </edge>
    <edge id=":gneJ157_2" function="internal">
        <lane id=":gneJ157_2_0" index="0" speed="13.89" length="6.41" shape="-401.65,-191.95 -401.04,-196.19 -399.95,-198.02"/>
    </edge>
    <edge id=":gneJ157_9" function="internal">
        <lane id=":gneJ157_9_0" index="0" speed="13.89" length="9.23" shape="-399.95,-198.02 -399.22,-199.23 -396.19,-201.04 -391.95,-201.65"/>
    </edge>
    <edge id=":gneJ157_3" function="internal">
        <lane id=":gneJ157_3_0" index="0" speed="13.89" length="5.00" shape="-391.95,-195.05 -393.31,-194.86 -394.27,-194.28 -394.86,-193.31 -395.05,-191.95"/>
    </edge>
    <edge id=":gneJ157_4" function="internal">
        <lane id=":gneJ157_4_0" index="0" speed="13.89" length="10.32" shape="-391.95,-198.35 -394.75,-197.95 -396.75,-196.75 -397.95,-194.75 -398.35,-191.95"/>
    </edge>
    <edge id=":gneJ157_5" function="internal">
        <lane id=":gneJ157_5_0" index="0" speed="13.89" length="15.64" shape="-391.95,-198.35 -396.19,-198.96 -399.23,-200.77 -401.04,-203.81 -401.65,-208.05"/>
    </edge>
    <edge id=":gneJ157_6" function="internal">
        <lane id=":gneJ157_6_0" index="0" speed="13.89" length="5.00" shape="-395.05,-208.05 -394.86,-206.69 -394.27,-205.72 -393.31,-205.14 -391.95,-204.95"/>
    </edge>
    <edge id=":gneJ157_7" function="internal">
        <lane id=":gneJ157_7_0" index="0" speed="13.89" length="16.10" shape="-395.05,-208.05 -395.05,-191.95"/>
        <lane id=":gneJ157_7_1" index="1" speed="13.89" length="16.10" shape="-398.35,-208.05 -398.35,-191.95"/>
    </edge>
    <edge id=":gneJ158_0" function="internal">
        <lane id=":gneJ158_0_0" index="0" speed="13.89" length="16.10" shape="-404.95,-91.95 -404.95,-108.05"/>
        <lane id=":gneJ158_0_1" index="1" speed="13.89" length="16.10" shape="-401.65,-91.95 -401.65,-108.05"/>
    </edge>
    <edge id=":gneJ158_2" function="internal">
        <lane id=":gneJ158_2_0" index="0" speed="13.89" length="6.41" shape="-401.65,-91.95 -401.04,-96.19 -399.95,-98.02"/>
    </edge>
    <edge id=":gneJ158_9" function="internal">
        <lane id=":gneJ158_9_0" index="0" speed="13.89" length="9.23" shape="-399.95,-98.02 -399.22,-99.22 -396.19,-101.04 -391.95,-101.65"/>
    </edge>
    <edge id=":gneJ158_3" function="internal">
        <lane id=":gneJ158_3_0" index="0" speed="13.89" length="5.00" shape="-391.95,-95.05 -393.31,-94.86 -394.27,-94.27 -394.86,-93.31 -395.05,-91.95"/>
    </edge>
    <edge id=":gneJ158_4" function="internal">
        <lane id=":gneJ158_4_0" index="0" speed="13.89" length="10.32" shape="-391.95,-98.35 -394.75,-97.95 -396.75,-96.75 -397.95,-94.75 -398.35,-91.95"/>
    </edge>
    <edge id=":gneJ158_5" function="internal">
        <lane id=":gneJ158_5_0" index="0" speed="13.89" length="15.64" shape="-391.95,-98.35 -396.19,-98.96 -399.23,-100.77 -401.04,-103.81 -401.65,-108.05"/>
    </edge>
    <edge id=":gneJ158_6" function="internal">
        <lane id=":gneJ158_6_0" index="0" speed="13.89" length="5.00" shape="-395.05,-108.05 -394.86,-106.69 -394.27,-105.72 -393.31,-105.14 -391.95,-104.95"/>
    </edge>
    <edge id=":gneJ158_7" function="internal">
        <lane id=":gneJ158_7_0" index="0" speed="13.89" length="16.10" shape="-395.05,-108.05 -395.05,-91.95"/>
        <lane id=":gneJ158_7_1" index="1" speed="13.89" length="16.10" shape="-398.35,-108.05 -398.35,-91.95"/>
    </edge>
    <edge id=":gneJ159_0" function="internal">
        <lane id=":gneJ159_0_0" index="0" speed="13.89" length="16.10" shape="-404.95,8.05 -404.95,-8.05"/>
        <lane id=":gneJ159_0_1" index="1" speed="13.89" length="16.10" shape="-401.65,8.05 -401.65,-8.05"/>
    </edge>
    <edge id=":gneJ159_2" function="internal">
        <lane id=":gneJ159_2_0" index="0" speed="13.89" length="6.41" shape="-401.65,8.05 -401.04,3.81 -399.95,1.98"/>
    </edge>
    <edge id=":gneJ159_9" function="internal">
        <lane id=":gneJ159_9_0" index="0" speed="13.89" length="9.23" shape="-399.95,1.98 -399.22,0.77 -396.19,-1.04 -391.95,-1.65"/>
    </edge>
    <edge id=":gneJ159_3" function="internal">
        <lane id=":gneJ159_3_0" index="0" speed="13.89" length="5.00" shape="-391.95,4.95 -393.31,5.14 -394.27,5.72 -394.86,6.69 -395.05,8.05"/>
    </edge>
    <edge id=":gneJ159_4" function="internal">
        <lane id=":gneJ159_4_0" index="0" speed="13.89" length="10.32" shape="-391.95,1.65 -394.75,2.05 -396.75,3.25 -397.95,5.25 -398.35,8.05"/>
    </edge>
    <edge id=":gneJ159_5" function="internal">
        <lane id=":gneJ159_5_0" index="0" speed="13.89" length="15.64" shape="-391.95,1.65 -396.19,1.04 -399.23,-0.77 -401.04,-3.81 -401.65,-8.05"/>
    </edge>
    <edge id=":gneJ159_6" function="internal">
        <lane id=":gneJ159_6_0" index="0" speed="13.89" length="5.00" shape="-395.05,-8.05 -394.86,-6.69 -394.27,-5.73 -393.31,-5.14 -391.95,-4.95"/>
    </edge>
    <edge id=":gneJ159_7" function="internal">
        <lane id=":gneJ159_7_0" index="0" speed="13.89" length="16.10" shape="-395.05,-8.05 -395.05,8.05"/>
        <lane id=":gneJ159_7_1" index="1" speed="13.89" length="16.10" shape="-398.35,-8.05 -398.35,8.05"/>
    </edge>
    <edge id=":gneJ160_0" function="internal">
        <lane id=":gneJ160_0_0" index="0" speed="13.89" length="16.10" shape="-404.95,108.05 -404.95,91.95"/>
        <lane id=":gneJ160_0_1" index="1" speed="13.89" length="16.10" shape="-401.65,108.05 -401.65,91.95"/>
    </edge>
    <edge id=":gneJ160_2" function="internal">
        <lane id=":gneJ160_2_0" index="0" speed="13.89" length="6.41" shape="-401.65,108.05 -401.04,103.81 -399.95,101.98"/>
    </edge>
    <edge id=":gneJ160_9" function="internal">
        <lane id=":gneJ160_9_0" index="0" speed="13.89" length="9.23" shape="-399.95,101.98 -399.22,100.77 -396.19,98.96 -391.95,98.35"/>
    </edge>
    <edge id=":gneJ160_3" function="internal">