<?xml version="1.0" encoding="UTF-8"?>

<configuration xmlns:xsi="http://www.w3.org/2001/XMLSchema-instance" xsi:noNamespaceSchemaLocation="http://sumo.dlr.de/xsd/sumoConfiguration.xsd">

    <input>

       <net-file value="ElectricVehNetwRout.net.xml"/>
       <additional-files value="additional_cs_veh.xml"/>
       <route-files value="randomRoute500.rou.xml"/>

    </input>

<!--   <output>-->
<!--        <device.battery.probability value="1"/>-->
<!--    </output> -->

    <time>
        <begin value="0"/>
    </time>

    <processing>
        <scale value="1"/>
    </processing>

    <report>
        <verbose value="true"/>
        <no-step-log value="true"/>
    </report>

</configuration>


